<?xml version="1.0" encoding="UTF-8"?>

<!-- generated on 2025-10-23 16:45:11 by Eclipse SUMO netedit Version 1.24.0
-->

<routes xmlns:xsi="http://www.w3.org/2001/XMLSchema-instance" xsi:noNamespaceSchemaLocation="http://sumo.dlr.de/xsd/routes_file.xsd">
    <!-- Vehicles, persons and containers (sorted by depart) -->
    <flow id="f_0" begin="0.00" from="E1" to="E1" end="3600.00" vehsPerHour="1800"/>
    <flow id="f_1" begin="0.00" departLane="1" from="E1" to="E1" end="3600.00" vehsPerHour="1800"/>
    <flow id="f_10" begin="0.00" departLane="0" from="-E2" to="-E2" end="3600.00" vehsPerHour="1800"/>
    <flow id="f_2" begin="0.00" departLane="0" from="-E1" to="-E1" end="3600.00" vehsPerHour="1800"/>
    <flow id="f_3" begin="0.00" departLane="1" from="-E1" to="-E1" end="3600.00" vehsPerHour="1800"/>
    <flow id="f_4" begin="0.00" departLane="2" from="E1" to="E1" end="3600.00" vehsPerHour="1800"/>
    <flow id="f_5" begin="0.00" departLane="2" from="-E1" to="-E1" end="3600.00" vehsPerHour="1800"/>
    <flow id="f_6" begin="0.00" departLane="2" from="-E2" to="-E2" end="3600.00" vehsPerHour="1800"/>
    <flow id="f_7" begin="0.00" departLane="2" from="E2" to="E2" end="3600.00" vehsPerHour="1800"/>
    <flow id="f_8" begin="0.00" departLane="1" from="E2" to="E2" end="3600.00" vehsPerHour="1800"/>
    <flow id="f_9" begin="0.00" departLane="1" from="-E2" to="-E2" end="3600.00" vehsPerHour="1800"/>
</routes>
