<?xml version="1.0" encoding="UTF-8"?>

<!-- generated on 2025-11-12 16:12:42 by Eclipse SUMO netedit Version 1.24.0
<neteditConfiguration xmlns:xsi="http://www.w3.org/2001/XMLSchema-instance" xsi:noNamespaceSchemaLocation="http://sumo.dlr.de/xsd/neteditConfiguration.xsd">

    <input>
        <sumo-net-file value="C:\Program Files (x86)\Eclipse\Sumo\test\net.net.xml"/>
    </input>

    <output>
        <output-file value="C:\Program Files (x86)\Eclipse\Sumo\test\net.net.xml"/>
    </output>

    <processing>
        <offset.disable-normalization value="true"/>
    </processing>

    <junctions>
        <no-turnarounds value="true"/>
    </junctions>

    <netedit>
        <new-network value="false"/>
    </netedit>

</neteditConfiguration>
-->

<net version="1.20" junctionCornerDetail="5" limitTurnSpeed="5.50" xmlns:xsi="http://www.w3.org/2001/XMLSchema-instance" xsi:noNamespaceSchemaLocation="http://sumo.dlr.de/xsd/net_file.xsd">

    <location netOffset="0.00,0.00" convBoundary="-49.71,2.36,51.94,2.44" origBoundary="10000000000.00,10000000000.00,-10000000000.00,-10000000000.00" projParameter="!"/>

    <edge id="-E0" from="J1" to="J0" priority="-1">
        <lane id="-E0_0" index="0" speed="13.89" length="101.65" shape="51.95,3.96 -49.71,4.04"/>
    </edge>
    <edge id="E0" from="J0" to="J1" priority="-1">
        <lane id="E0_0" index="0" speed="13.89" length="101.65" shape="-49.71,0.84 51.94,0.76"/>
    </edge>

    <junction id="J0" type="dead_end" x="-49.71" y="2.44" incLanes="-E0_0" intLanes="" shape="-49.71,2.44 -49.71,5.64 -49.71,2.44"/>
    <junction id="J1" type="dead_end" x="51.94" y="2.36" incLanes="E0_0" intLanes="" shape="51.94,2.36 51.94,-0.84 51.94,2.36"/>

</net>
