<?xml version="1.0" encoding="UTF-8"?>

<!-- generated on 2025-12-02 14:39:52.597957 by osmWebWizard.py v1_24_0+0000-b72eb3fabc8
<configuration>
    <net-file value="C:\Program Files (x86)\Eclipse\Sumo\tools\2025-12-02-14-39-42\osm.net.xml.gz"/>
    <output-trip-file value="C:\Program Files (x86)\Eclipse\Sumo\tools\2025-12-02-14-39-42\osm.passenger.trips.xml"/>
    <route-file value="C:\Program Files (x86)\Eclipse\Sumo\tools\2025-12-02-14-39-42\osm.passenger.rou.xml"/>
    <prefix value="veh"/>
    <trip-attributes value="departLane=&quot;best&quot;"/>
    <fringe-start-attributes value="departSpeed=&quot;max&quot;"/>
    <vehicle-class value="passenger"/>
    <lanes value="True"/>
    <fringe-factor value="5"/>
    <allow-fringe.min-length value="1000.0"/>
    <edge-permission value="passenger"/>
    <via-edge-types value="highway.motorway,highway.motorway_link,highway.trunk_link,highway.primary_link,highway.secondary_link,highway.tertiary_link"/>
    <min-distance value="300.0"/>
    <min-distance.fringe value="10.0"/>
    <remove-loops value="True"/>
    <insertion-density value="12.0"/>
</configuration>
-->

<routes xmlns:xsi="http://www.w3.org/2001/XMLSchema-instance" xsi:noNamespaceSchemaLocation="http://sumo.dlr.de/xsd/routes_file.xsd">
    <vType id="veh_passenger" vClass="passenger"/>
    <trip id="veh0" depart="0.00" from="4218426" to="-1320033536#3" departLane="best" type="veh_passenger"/>
    <trip id="veh1" depart="7.03" from="1327811053#0" to="1257751783#0" departLane="best" type="veh_passenger"/>
    <trip id="veh2" depart="14.07" from="4706984#1" to="4652504#0" departLane="best" type="veh_passenger"/>
    <trip id="veh3" depart="21.10" from="54170891#0" to="-30282240#1" departLane="best" type="veh_passenger" departSpeed="max"/>
    <trip id="veh4" depart="28.13" from="151885744" to="-132963888#0" departLane="best" type="veh_passenger"/>
    <trip id="veh5" depart="35.17" from="1267352664" to="314789428#0" departLane="best" type="veh_passenger"/>
    <trip id="veh6" depart="42.20" from="4221194#0" to="314789436#0" departLane="best" type="veh_passenger" departSpeed="max"/>
    <trip id="veh7" depart="49.23" from="1288871249" to="371146272" departLane="best" type="veh_passenger"/>
    <trip id="veh8" depart="56.27" from="4824698#0" to="4723928" departLane="best" type="veh_passenger"/>
    <trip id="veh9" depart="63.30" from="138478937#0" to="-4824715#1" departLane="best" type="veh_passenger" departSpeed="max"/>
    <trip id="veh10" depart="70.34" from="-286219584" to="-371146251" departLane="best" type="veh_passenger" departSpeed="max"/>
    <trip id="veh11" depart="77.37" from="4827475#0" to="4218425" departLane="best" type="veh_passenger" departSpeed="max"/>
    <trip id="veh12" depart="84.40" from="4824698#0" to="4760369#1" departLane="best" type="veh_passenger"/>
    <trip id="veh13" depart="91.44" from="30282240#0" to="928805373" departLane="best" type="veh_passenger" departSpeed="max"/>
    <trip id="veh14" depart="98.47" from="142505484" to="314789437#0" departLane="best" type="veh_passenger"/>
    <trip id="veh15" depart="105.50" from="4824710" to="4221194#2" departLane="best" type="veh_passenger" departSpeed="max"/>
    <trip id="veh16" depart="112.54" from="4828723#2" to="37035107#0" departLane="best" type="veh_passenger"/>
    <trip id="veh17" depart="119.57" from="454115430" to="-152445636#2" departLane="best" type="veh_passenger" departSpeed="max"/>
    <trip id="veh18" depart="126.60" from="1296559527#0" to="132963888#0" departLane="best" type="veh_passenger" departSpeed="max"/>
    <trip id="veh19" depart="133.64" from="-260923013#1" to="1267352664" departLane="best" type="veh_passenger" departSpeed="max"/>
    <trip id="veh20" depart="140.67" from="-314994941#2" to="13215020#0" departLane="best" type="veh_passenger"/>
    <trip id="veh21" depart="147.70" from="4218425" to="149540118" departLane="best" type="veh_passenger"/>
    <trip id="veh22" depart="154.74" from="1413218448" to="1254697471" departLane="best" type="veh_passenger"/>
    <trip id="veh23" depart="161.77" from="130876651" to="84657869#2" departLane="best" type="veh_passenger"/>
    <trip id="veh24" depart="168.80" from="4221194#0" to="4218501#0" departLane="best" type="veh_passenger" departSpeed="max"/>
    <trip id="veh25" depart="175.84" from="-96136747#1" to="4760369#1" departLane="best" type="veh_passenger"/>
    <trip id="veh26" depart="182.87" from="-84657872#4" to="153897364#0" departLane="best" type="veh_passenger"/>
    <trip id="veh27" depart="189.91" from="928805374#0" to="439027698" departLane="best" type="veh_passenger"/>
    <trip id="veh28" depart="196.94" from="4824713" to="4824568#2" departLane="best" type="veh_passenger"/>
    <trip id="veh29" depart="203.97" from="1296559527#0" to="-132963888#1" departLane="best" type="veh_passenger" departSpeed="max"/>
    <trip id="veh30" depart="211.01" from="138347514#0" to="1318997552#0" departLane="best" type="veh_passenger"/>
    <trip id="veh31" depart="218.04" from="1267345325" to="84657869#3" departLane="best" type="veh_passenger"/>
    <trip id="veh32" depart="225.07" from="4221194#0" to="177589845" departLane="best" type="veh_passenger" departSpeed="max"/>
    <trip id="veh33" depart="232.11" from="66227364#0" to="27557419#0" departLane="best" type="veh_passenger" departSpeed="max"/>
    <trip id="veh34" depart="239.14" from="130876649#0" to="130547038" departLane="best" type="veh_passenger"/>
    <trip id="veh35" depart="246.17" from="314789428#0" to="130876649#0" departLane="best" type="veh_passenger"/>
    <trip id="veh36" depart="253.21" from="314789433#2" to="676073624#0" departLane="best" type="veh_passenger"/>
    <trip id="veh37" depart="260.24" from="149539965#0" to="1257751783#0" departLane="best" type="veh_passenger" departSpeed="max"/>
    <trip id="veh38" depart="267.27" from="9792393#0" to="314789430#0" departLane="best" type="veh_passenger"/>
    <trip id="veh39" depart="274.31" from="-286219584" to="-152445636#2" departLane="best" type="veh_passenger" departSpeed="max"/>
    <trip id="veh40" depart="281.34" from="-37035107#1" to="438648464" departLane="best" type="veh_passenger" departSpeed="max"/>
    <trip id="veh41" depart="288.37" from="4824572" to="259409009#0" departLane="best" type="veh_passenger" departSpeed="max"/>
    <trip id="veh42" depart="295.41" from="-149357417" to="153897369#0" departLane="best" type="veh_passenger"/>
    <trip id="veh43" depart="302.44" from="9792393#0" to="314789433#2" departLane="best" type="veh_passenger"/>
    <trip id="veh44" depart="309.48" from="-1254697470" to="4756457#0" departLane="best" type="veh_passenger"/>
    <trip id="veh45" depart="316.51" from="439027698" to="314789433#4" departLane="best" type="veh_passenger"/>
    <trip id="veh46" depart="323.54" from="130876651" to="439027698" departLane="best" type="veh_passenger"/>
    <trip id="veh47" depart="330.58" from="171934808#0" to="84657869#3" departLane="best" type="veh_passenger" departSpeed="max"/>
    <trip id="veh48" depart="337.61" from="265499418" to="1127747292" departLane="best" type="veh_passenger"/>
    <trip id="veh49" depart="344.64" from="66227364#0" to="61893919" departLane="best" type="veh_passenger" departSpeed="max"/>
    <trip id="veh50" depart="351.68" from="137513639" to="439027697" departLane="best" type="veh_passenger" departSpeed="max"/>
    <trip id="veh51" depart="358.71" from="4756454#0" to="314789433#4" departLane="best" type="veh_passenger"/>
    <trip id="veh52" depart="365.74" from="-13019236#1" to="84657867#0" departLane="best" type="veh_passenger"/>
    <trip id="veh53" depart="372.78" from="138347498" to="-171934808#4" departLane="best" type="veh_passenger"/>
    <trip id="veh54" depart="379.81" from="-260923013#1" to="314789414" departLane="best" type="veh_passenger" departSpeed="max"/>
    <trip id="veh55" depart="386.84" from="-177589845" to="4824557#0" departLane="best" type="veh_passenger" departSpeed="max"/>
    <trip id="veh56" depart="393.88" from="4756455#3" to="-4824702#0" departLane="best" type="veh_passenger"/>
    <trip id="veh57" depart="400.91" from="259408983#0" to="314789437#0" departLane="best" type="veh_passenger"/>
    <trip id="veh58" depart="407.94" from="130876649#0" to="61893919" departLane="best" type="veh_passenger"/>
    <trip id="veh59" depart="414.98" from="151885744" to="1254697471" departLane="best" type="veh_passenger"/>
    <trip id="veh60" depart="422.01" from="314789414" to="4760369#1" departLane="best" type="veh_passenger"/>
    <trip id="veh61" depart="429.05" from="1157218287#0" to="138347505#0" departLane="best" type="veh_passenger"/>
    <trip id="veh62" depart="436.08" from="9792393#0" to="439937531#0" departLane="best" type="veh_passenger"/>
    <trip id="veh63" depart="443.11" from="171934808#0" to="314789433#0" departLane="best" type="veh_passenger" departSpeed="max"/>
    <trip id="veh64" depart="450.15" from="-42941531" to="1257751783#0" departLane="best" type="veh_passenger"/>
    <trip id="veh65" depart="457.18" from="138478937#0" to="371146272" departLane="best" type="veh_passenger" departSpeed="max"/>
    <trip id="veh66" depart="464.21" from="1296559527#0" to="1257751783#0" departLane="best" type="veh_passenger" departSpeed="max"/>
    <trip id="veh67" depart="471.25" from="-177589845" to="438652661" departLane="best" type="veh_passenger" departSpeed="max"/>
    <trip id="veh68" depart="478.28" from="1296559527#0" to="676073624#0" departLane="best" type="veh_passenger" departSpeed="max"/>
    <trip id="veh69" depart="485.31" from="4828723#0" to="-286217796" departLane="best" type="veh_passenger"/>
    <trip id="veh70" depart="492.35" from="13019236#2" to="4599173" departLane="best" type="veh_passenger"/>
    <trip id="veh71" depart="499.38" from="1267352664" to="-4824702#2" departLane="best" type="veh_passenger"/>
    <trip id="veh72" depart="506.41" from="682283961" to="335993897" departLane="best" type="veh_passenger"/>
    <trip id="veh73" depart="513.45" from="259408983#0" to="4824695#1" departLane="best" type="veh_passenger"/>
    <trip id="veh74" depart="520.48" from="4824700#0" to="1128053155#0" departLane="best" type="veh_passenger"/>
    <trip id="veh75" depart="527.51" from="-286219584" to="260923013#0" departLane="best" type="veh_passenger" departSpeed="max"/>
    <trip id="veh76" depart="534.55" from="151885744" to="286217799#3" departLane="best" type="veh_passenger"/>
    <trip id="veh77" depart="541.58" from="928805373" to="-371146256" departLane="best" type="veh_passenger"/>
    <trip id="veh78" depart="548.62" from="149539965#0" to="142505484" departLane="best" type="veh_passenger" departSpeed="max"/>
    <trip id="veh79" depart="555.65" from="4828723#2" to="130547039" departLane="best" type="veh_passenger"/>
    <trip id="veh80" depart="562.68" from="151885744" to="13215020#0" departLane="best" type="veh_passenger"/>
    <trip id="veh81" depart="569.72" from="130547038" to="84657864#0" departLane="best" type="veh_passenger"/>
    <trip id="veh82" depart="576.75" from="171934808#0" to="61893919" departLane="best" type="veh_passenger" departSpeed="max"/>
    <trip id="veh83" depart="583.78" from="314789426#0" to="-171934808#4" departLane="best" type="veh_passenger"/>
    <trip id="veh84" depart="590.82" from="98428996#0" to="4828831" departLane="best" type="veh_passenger"/>
    <trip id="veh85" depart="597.85" from="4827475#0" to="-96136747#1" departLane="best" type="veh_passenger" departSpeed="max"/>
    <trip id="veh86" depart="604.88" from="265499402#0" to="1254697471" departLane="best" type="veh_passenger"/>
    <trip id="veh87" depart="611.92" from="149539965#0" to="-171934808#4" departLane="best" type="veh_passenger" departSpeed="max"/>
    <trip id="veh88" depart="618.95" from="142505484" to="97533923" departLane="best" type="veh_passenger"/>
    <trip id="veh89" depart="625.98" from="130876651" to="4824695#1" departLane="best" type="veh_passenger"/>
    <trip id="veh90" depart="633.02" from="171934808#0" to="259409009#0" departLane="best" type="veh_passenger" departSpeed="max"/>
    <trip id="veh91" depart="640.05" from="314789426#1" to="4756455#3" departLane="best" type="veh_passenger"/>
    <trip id="veh92" depart="647.08" from="-4824707" to="132964155#0" departLane="best" type="veh_passenger"/>
    <trip id="veh93" depart="654.12" from="314789414" to="4778724#0" departLane="best" type="veh_passenger"/>
    <trip id="veh94" depart="661.15" from="-142356185#1" to="371146251" departLane="best" type="veh_passenger"/>
    <trip id="veh95" depart="668.19" from="-4824708" to="84657870#1" departLane="best" type="veh_passenger"/>
    <trip id="veh96" depart="675.22" from="-260923013#1" to="1127747292" departLane="best" type="veh_passenger" departSpeed="max"/>
    <trip id="veh97" depart="682.25" from="314789436#0" to="4652504#0" departLane="best" type="veh_passenger"/>
    <trip id="veh98" depart="689.29" from="13019233#0" to="-4693899#1" departLane="best" type="veh_passenger"/>
    <trip id="veh99" depart="696.32" from="54170891#0" to="13019236#2" departLane="best" type="veh_passenger" departSpeed="max"/>
    <trip id="veh100" depart="703.35" from="314789436#0" to="4221194#3" departLane="best" type="veh_passenger"/>
    <trip id="veh101" depart="710.39" from="151885742#0" to="371146247" departLane="best" type="veh_passenger"/>
    <trip id="veh102" depart="717.42" from="294731046#0" to="84657869#2" departLane="best" type="veh_passenger" departSpeed="max"/>
    <trip id="veh103" depart="724.45" from="1161997241" to="4756455#0" departLane="best" type="veh_passenger"/>
    <trip id="veh104" depart="731.49" from="13019236#2" to="177589845" departLane="best" type="veh_passenger"/>
    <trip id="veh105" depart="738.52" from="438652661" to="137513640" departLane="best" type="veh_passenger"/>
    <trip id="veh106" depart="745.55" from="138347514#0" to="4778724#0" departLane="best" type="veh_passenger"/>
    <trip id="veh107" depart="752.59" from="-177589845" to="27557419#0" departLane="best" type="veh_passenger" departSpeed="max"/>
    <trip id="veh108" depart="759.62" from="-177589845" to="1254697471" departLane="best" type="veh_passenger" departSpeed="max"/>
    <trip id="veh109" depart="766.65" from="130876651" to="84657869#0" departLane="best" type="veh_passenger"/>
    <trip id="veh110" depart="773.69" from="4834297#0" to="66227390#0" departLane="best" type="veh_passenger"/>
    <trip id="veh111" depart="780.72" from="1413218448" to="-84657872#4" departLane="best" type="veh_passenger"/>
    <trip id="veh112" depart="787.76" from="4824710" to="4726265#0" departLane="best" type="veh_passenger" departSpeed="max"/>
    <trip id="veh113" depart="794.79" from="314994940#0" to="97533923" departLane="best" type="veh_passenger"/>
    <trip id="veh114" depart="801.82" from="4221194#0" to="-1157218234#4" departLane="best" type="veh_passenger" departSpeed="max"/>
    <trip id="veh115" depart="808.86" from="4824704#0" to="137513640" departLane="best" type="veh_passenger"/>
    <trip id="veh116" depart="815.89" from="4221194#4" to="84657869#3" departLane="best" type="veh_passenger"/>
    <trip id="veh117" depart="822.92" from="-4693899#0" to="-458150953#1" departLane="best" type="veh_passenger"/>
    <trip id="veh118" depart="829.96" from="-37035107#1" to="314789441#0" departLane="best" type="veh_passenger" departSpeed="max"/>
    <trip id="veh119" depart="836.99" from="1320033536#0" to="4218426" departLane="best" type="veh_passenger"/>
    <trip id="veh120" depart="844.02" from="454115430" to="1161997241" departLane="best" type="veh_passenger" departSpeed="max"/>
    <trip id="veh121" depart="851.06" from="4218425" to="130876651" departLane="best" type="veh_passenger"/>
    <trip id="veh122" depart="858.09" from="265499402#4" to="676073624#0" departLane="best" type="veh_passenger"/>
    <trip id="veh123" depart="865.12" from="4827448#0" to="-30282240#1" departLane="best" type="veh_passenger"/>
    <trip id="veh124" depart="872.16" from="151885744" to="13215020#0" departLane="best" type="veh_passenger"/>
    <trip id="veh125" depart="879.19" from="-1081647938" to="4824567" departLane="best" type="veh_passenger"/>
    <trip id="veh126" depart="886.22" from="4218426" to="130876649#0" departLane="best" type="veh_passenger"/>
    <trip id="veh127" depart="893.26" from="4723927" to="314789437#0" departLane="best" type="veh_passenger"/>
    <trip id="veh128" depart="900.29" from="152445636#0" to="-1157218235" departLane="best" type="veh_passenger"/>
    <trip id="veh129" depart="907.33" from="-177589845" to="66227390#0" departLane="best" type="veh_passenger" departSpeed="max"/>
    <trip id="veh130" depart="914.36" from="66227364#0" to="314789436#0" departLane="best" type="veh_passenger" departSpeed="max"/>
    <trip id="veh131" depart="921.39" from="4824710" to="371146247" departLane="best" type="veh_passenger" departSpeed="max"/>
    <trip id="veh132" depart="928.43" from="-4824702#2" to="-4824698#1" departLane="best" type="veh_passenger"/>
    <trip id="veh133" depart="935.46" from="138347498" to="676073624#0" departLane="best" type="veh_passenger"/>
    <trip id="veh134" depart="942.49" from="4824573#0" to="61893919" departLane="best" type="veh_passenger"/>
    <trip id="veh135" depart="949.53" from="627278687" to="1254697471" departLane="best" type="veh_passenger"/>
    <trip id="veh136" depart="956.56" from="130547038" to="-4218501#3" departLane="best" type="veh_passenger"/>
    <trip id="veh137" depart="963.59" from="4824568#0" to="66227390#0" departLane="best" type="veh_passenger"/>
    <trip id="veh138" depart="970.63" from="149539965#0" to="4221194#3" departLane="best" type="veh_passenger" departSpeed="max"/>
    <trip id="veh139" depart="977.66" from="-4824705#3" to="84657869#0" departLane="best" type="veh_passenger"/>
    <trip id="veh140" depart="984.69" from="4824702#0" to="66227390#0" departLane="best" type="veh_passenger"/>
    <trip id="veh141" depart="991.73" from="138478937#0" to="84657869#0" departLane="best" type="veh_passenger" departSpeed="max"/>
    <trip id="veh142" depart="998.76" from="4824697#0" to="61893919" departLane="best" type="veh_passenger"/>
    <trip id="veh143" depart="1005.79" from="4824702#0" to="130876652#0" departLane="best" type="veh_passenger"/>
    <trip id="veh144" depart="1012.83" from="4828831" to="61893919" departLane="best" type="veh_passenger"/>
    <trip id="veh145" depart="1019.86" from="1296559527#0" to="4824713" departLane="best" type="veh_passenger" departSpeed="max"/>
    <trip id="veh146" depart="1026.90" from="22662319" to="138347498" departLane="best" type="veh_passenger" departSpeed="max"/>
    <trip id="veh147" depart="1033.93" from="4824573#0" to="1267345325" departLane="best" type="veh_passenger"/>
    <trip id="veh148" depart="1040.96" from="-130547038" to="1157218234#0" departLane="best" type="veh_passenger"/>
    <trip id="veh149" depart="1048.00" from="850531095" to="13215020#0" departLane="best" type="veh_passenger"/>
    <trip id="veh150" depart="1055.03" from="4218501#0" to="177589869#0" departLane="best" type="veh_passenger"/>
    <trip id="veh151" depart="1062.06" from="891060523" to="314789433#4" departLane="best" type="veh_passenger"/>
    <trip id="veh152" depart="1069.10" from="749163056" to="-458150953#1" departLane="best" type="veh_passenger"/>
    <trip id="veh153" depart="1076.13" from="142517770" to="37035107#0" departLane="best" type="veh_passenger"/>
    <trip id="veh154" depart="1083.16" from="130764244#0" to="4726271#0" departLane="best" type="veh_passenger"/>
    <trip id="veh155" depart="1090.20" from="-1081647125" to="84657865" departLane="best" type="veh_passenger"/>
    <trip id="veh156" depart="1097.23" from="314789414" to="4756456" departLane="best" type="veh_passenger"/>
    <trip id="veh157" depart="1104.26" from="4723927" to="4599173" departLane="best" type="veh_passenger"/>
    <trip id="veh158" depart="1111.30" from="1413212083" to="-171934808#4" departLane="best" type="veh_passenger"/>
    <trip id="veh159" depart="1118.33" from="4221194#4" to="1413218448" departLane="best" type="veh_passenger"/>
    <trip id="veh160" depart="1125.36" from="458150953#0" to="138347489#0" departLane="best" type="veh_passenger"/>
    <trip id="veh161" depart="1132.40" from="138347505#0" to="177589889" departLane="best" type="veh_passenger"/>
    <trip id="veh162" depart="1139.43" from="-438652661" to="259409009#0" departLane="best" type="veh_passenger"/>
    <trip id="veh163" depart="1146.47" from="81532693#0" to="4652504#0" departLane="best" type="veh_passenger"/>
    <trip id="veh164" depart="1153.50" from="66227364#0" to="4221194#1" departLane="best" type="veh_passenger" departSpeed="max"/>
    <trip id="veh165" depart="1160.53" from="-1081647125" to="132963886" departLane="best" type="veh_passenger"/>
    <trip id="veh166" depart="1167.57" from="4221194#0" to="286217799#0" departLane="best" type="veh_passenger" departSpeed="max"/>
    <trip id="veh167" depart="1174.60" from="171934808#0" to="1254697471" departLane="best" type="veh_passenger" departSpeed="max"/>
    <trip id="veh168" depart="1181.63" from="4824573#0" to="-96136748#1" departLane="best" type="veh_passenger"/>
    <trip id="veh169" depart="1188.67" from="-260923013#1" to="314789432" departLane="best" type="veh_passenger" departSpeed="max"/>
    <trip id="veh170" depart="1195.70" from="4218425" to="1413218448" departLane="best" type="veh_passenger"/>
    <trip id="veh171" depart="1202.73" from="4824704#4" to="4778724#0" departLane="best" type="veh_passenger"/>
    <trip id="veh172" depart="1209.77" from="438898636#0" to="1257751783#0" departLane="best" type="veh_passenger"/>
    <trip id="veh173" depart="1216.80" from="1157218235" to="-130547038" departLane="best" type="veh_passenger"/>
    <trip id="veh174" depart="1223.83" from="130528361" to="286217799#4" departLane="best" type="veh_passenger" departSpeed="max"/>
    <trip id="veh175" depart="1230.87" from="4827475#0" to="-286217796" departLane="best" type="veh_passenger" departSpeed="max"/>
    <trip id="veh176" depart="1237.90" from="149540118" to="438652661" departLane="best" type="veh_passenger"/>
    <trip id="veh177" depart="1244.93" from="1128053155#0" to="4723928" departLane="best" type="veh_passenger"/>
    <trip id="veh178" depart="1251.97" from="265499402#5" to="13019233#0" departLane="best" type="veh_passenger"/>
    <trip id="veh179" depart="1259.00" from="4221194#0" to="-1157218232" departLane="best" type="veh_passenger" departSpeed="max"/>
    <trip id="veh180" depart="1266.04" from="4724425" to="4824567" departLane="best" type="veh_passenger"/>
    <trip id="veh181" depart="1273.07" from="-37035107#1" to="259409009#0" departLane="best" type="veh_passenger" departSpeed="max"/>
    <trip id="veh182" depart="1280.10" from="1079647854#0" to="84657869#3" departLane="best" type="veh_passenger"/>
    <trip id="veh183" depart="1287.14" from="286219585" to="-171934808#4" departLane="best" type="veh_passenger"/>
    <trip id="veh184" depart="1294.17" from="171934808#0" to="4824704#4" departLane="best" type="veh_passenger" departSpeed="max"/>
    <trip id="veh185" depart="1301.20" from="438648463" to="97533923" departLane="best" type="veh_passenger"/>
    <trip id="veh186" depart="1308.24" from="314789436#0" to="84657869#3" departLane="best" type="veh_passenger"/>
    <trip id="veh187" depart="1315.27" from="54170891#0" to="4218501#1" departLane="best" type="veh_passenger" departSpeed="max"/>
    <trip id="veh188" depart="1322.30" from="458150953#0" to="314789428#0" departLane="best" type="veh_passenger"/>
    <trip id="veh189" depart="1329.34" from="4824710" to="314789437#0" departLane="best" type="veh_passenger" departSpeed="max"/>
    <trip id="veh190" depart="1336.37" from="54170891#0" to="4778724#0" departLane="best" type="veh_passenger" departSpeed="max"/>
    <trip id="veh191" depart="1343.40" from="259408983#0" to="130876649#0" departLane="best" type="veh_passenger"/>
    <trip id="veh192" depart="1350.44" from="130528361" to="439027697" departLane="best" type="veh_passenger" departSpeed="max"/>
    <trip id="veh193" depart="1357.47" from="4756455#3" to="314789433#0" departLane="best" type="veh_passenger"/>
    <trip id="veh194" depart="1364.50" from="371146251" to="13215020#0" departLane="best" type="veh_passenger"/>
    <trip id="veh195" depart="1371.54" from="-177589845" to="132963886" departLane="best" type="veh_passenger" departSpeed="max"/>
    <trip id="veh196" depart="1378.57" from="314789414" to="-4824705#3" departLane="best" type="veh_passenger"/>
    <trip id="veh197" depart="1385.61" from="1298038631#0" to="4723928" departLane="best" type="veh_passenger"/>
    <trip id="veh198" depart="1392.64" from="454115430" to="-171934808#4" departLane="best" type="veh_passenger" departSpeed="max"/>
    <trip id="veh199" depart="1399.67" from="149539965#0" to="314789436#0" departLane="best" type="veh_passenger" departSpeed="max"/>
    <trip id="veh200" depart="1406.71" from="150276881" to="1254697471" departLane="best" type="veh_passenger"/>
    <trip id="veh201" depart="1413.74" from="151885744" to="676073624#0" departLane="best" type="veh_passenger"/>
    <trip id="veh202" depart="1420.77" from="314789433#2" to="4723928" departLane="best" type="veh_passenger"/>
    <trip id="veh203" depart="1427.81" from="4827475#0" to="4824567" departLane="best" type="veh_passenger" departSpeed="max"/>
    <trip id="veh204" depart="1434.84" from="142517769#0" to="-1157218232" departLane="best" type="veh_passenger"/>
    <trip id="veh205" depart="1441.87" from="138478937#0" to="4778724#0" departLane="best" type="veh_passenger" departSpeed="max"/>
    <trip id="veh206" depart="1448.91" from="4827475#0" to="84657869#3" departLane="best" type="veh_passenger" departSpeed="max"/>
    <trip id="veh207" depart="1455.94" from="151885742#0" to="4778724#0" departLane="best" type="veh_passenger"/>
    <trip id="veh208" depart="1462.97" from="314789414" to="4218425" departLane="best" type="veh_passenger"/>
    <trip id="veh209" depart="1470.01" from="1288871249" to="1257751783#0" departLane="best" type="veh_passenger"/>
    <trip id="veh210" depart="1477.04" from="138478937#0" to="4693899#0" departLane="best" type="veh_passenger" departSpeed="max"/>
    <trip id="veh211" depart="1484.07" from="149539965#0" to="-928805374#4" departLane="best" type="veh_passenger" departSpeed="max"/>
    <trip id="veh212" depart="1491.11" from="22662319" to="-4824698#1" departLane="best" type="veh_passenger" departSpeed="max"/>
    <trip id="veh213" depart="1498.14" from="335993897" to="-132963886" departLane="best" type="veh_passenger"/>
    <trip id="veh214" depart="1505.18" from="149357425" to="314994947#0" departLane="best" type="veh_passenger"/>
    <trip id="veh215" depart="1512.21" from="-4693899#1" to="27729257#0" departLane="best" type="veh_passenger"/>
    <trip id="veh216" depart="1519.24" from="-1410313607" to="153897364#0" departLane="best" type="veh_passenger" departSpeed="max"/>
    <trip id="veh217" depart="1526.28" from="1267345325" to="1413212084#1" departLane="best" type="veh_passenger"/>
    <trip id="veh218" depart="1533.31" from="4756454#0" to="153897364#0" departLane="best" type="veh_passenger"/>
    <trip id="veh219" depart="1540.34" from="4726265#0" to="4828723#3" departLane="best" type="veh_passenger"/>
    <trip id="veh220" depart="1547.38" from="130547039" to="-286219587" departLane="best" type="veh_passenger"/>
    <trip id="veh221" depart="1554.41" from="-13019236#1" to="314789433#4" departLane="best" type="veh_passenger"/>
    <trip id="veh222" depart="1561.44" from="98428996#0" to="149357414" departLane="best" type="veh_passenger"/>
    <trip id="veh223" depart="1568.48" from="4221194#0" to="4824695#0" departLane="best" type="veh_passenger" departSpeed="max"/>
    <trip id="veh224" depart="1575.51" from="4221194#0" to="4778724#0" departLane="best" type="veh_passenger" departSpeed="max"/>
    <trip id="veh225" depart="1582.54" from="84657865" to="1161997241" departLane="best" type="veh_passenger"/>
    <trip id="veh226" depart="1589.58" from="-438648463" to="4599173" departLane="best" type="veh_passenger"/>
    <trip id="veh227" depart="1596.61" from="314789428#0" to="1257751783#0" departLane="best" type="veh_passenger"/>
    <trip id="veh228" depart="1603.64" from="454115430" to="4824567" departLane="best" type="veh_passenger" departSpeed="max"/>
    <trip id="veh229" depart="1610.68" from="-928805374#4" to="4218426" departLane="best" type="veh_passenger"/>
    <trip id="veh230" depart="1617.71" from="4723928" to="-458150953#1" departLane="best" type="veh_passenger"/>
    <trip id="veh231" depart="1624.75" from="-37035107#1" to="-1320033536#3" departLane="best" type="veh_passenger" departSpeed="max"/>
    <trip id="veh232" depart="1631.78" from="138347505#0" to="4652504#0" departLane="best" type="veh_passenger"/>
    <trip id="veh233" depart="1638.81" from="454115430" to="-286217796" departLane="best" type="veh_passenger" departSpeed="max"/>
    <trip id="veh234" depart="1645.85" from="-314994941#2" to="4824568#0" departLane="best" type="veh_passenger"/>
    <trip id="veh235" depart="1652.88" from="4827475#0" to="4218425" departLane="best" type="veh_passenger" departSpeed="max"/>
    <trip id="veh236" depart="1659.91" from="-42941531" to="97533923" departLane="best" type="veh_passenger"/>
    <trip id="veh237" depart="1666.95" from="153897364#0" to="151885742#0" departLane="best" type="veh_passenger"/>
    <trip id="veh238" depart="1673.98" from="27557419#0" to="142517769#0" departLane="best" type="veh_passenger"/>
    <trip id="veh239" depart="1681.01" from="4827475#0" to="4828723#0" departLane="best" type="veh_passenger" departSpeed="max"/>
    <trip id="veh240" depart="1688.05" from="-37035107#1" to="84657870#1" departLane="best" type="veh_passenger" departSpeed="max"/>